20643479
  -OEChem-01302014232D

 96 98  0     1  0  0  0  0  0999 V2000
    5.4641    3.1682    0.0000 O   0  0  0  0  0  0  0  0  0  0  0  0
    8.9282    4.1682    0.0000 O   0  0  0  0  0  0  0  0  0  0  0  0
    6.3301   -0.3318    0.0000 O   0  0  0  0  0  0  0  0  0  0  0  0
   11.7817    7.7833    0.0000 O   0  0  0  0  0  0  0  0  0  0  0  0
   10.0216   10.8318    0.0000 O   0  0  0  0  0  0  0  0  0  0  0  0
    2.0000    4.1682    0.0000 O   0  0  0  0  0  0  0  0  0  0  0  0
    3.7320   -4.8318    0.0000 O   0  0  0  0  0  0  0  0  0  0  0  0
    2.8660   -6.3318    0.0000 O   0  0  0  0  0  0  0  0  0  0  0  0
    4.5981   -6.3318    0.0000 O   0  0  0  0  0  0  0  0  0  0  0  0
    2.0000  -10.8318    0.0000 O   0  5  0  0  0  0  0  0  0  0  0  0
    3.7320  -10.8318    0.0000 O   0  0  0  0  0  0  0  0  0  0  0  0
    7.1962    4.1682    0.0000 N   0  0  0  0  0  0  0  0  0  0  0  0
    6.3301    1.6682    0.0000 N   0  0  0  0  0  0  0  0  0  0  0  0
   10.6603    9.1682    0.0000 N   0  0  0  0  0  0  0  0  0  0  0  0
    4.5981   -0.3318    0.0000 N   0  0  0  0  0  0  0  0  0  0  0  0
    3.7320    4.1682    0.0000 N   0  0  0  0  0  0  0  0  0  0  0  0
    2.8660    5.6682    0.0000 N   0  0  0  0  0  0  0  0  0  0  0  0
    2.8660  -10.3318    0.0000 N   0  3  0  0  0  0  0  0  0  0  0  0
    7.1962    3.1682    0.0000 C   0  0  3  0  0  0  0  0  0  0  0  0
    8.0622    2.6682    0.0000 C   0  0  0  0  0  0  0  0  0  0  0  0
    5.4641    1.1682    0.0000 C   0  0  3  0  0  0  0  0  0  0  0  0
    6.3301    2.6682    0.0000 C   0  0  0  0  0  0  0  0  0  0  0  0
    4.5981    1.6682    0.0000 C   0  0  0  0  0  0  0  0  0  0  0  0
    8.9282    3.1682    0.0000 C   0  0  0  0  0  0  0  0  0  0  0  0
    8.0622    1.6682    0.0000 C   0  0  0  0  0  0  0  0  0  0  0  0
    8.9282    6.1682    0.0000 C   0  0  0  0  0  0  0  0  0  0  0  0
    8.0622    5.6682    0.0000 C   0  0  0  0  0  0  0  0  0  0  0  0
    4.5981    2.6682    0.0000 C   0  0  0  0  0  0  0  0  0  0  0  0
    8.9282    7.1682    0.0000 C   0  0  0  0  0  0  0  0  0  0  0  0
    8.0622    4.6682    0.0000 C   0  0  0  0  0  0  0  0  0  0  0  0
    9.7942    7.6682    0.0000 C   0  0  0  0  0  0  0  0  0  0  0  0
    5.4641    0.1682    0.0000 C   0  0  0  0  0  0  0  0  0  0  0  0
    9.7942    8.6682    0.0000 C   0  0  0  0  0  0  0  0  0  0  0  0
    3.7320    3.1682    0.0000 C   0  0  0  0  0  0  0  0  0  0  0  0
    4.5981   -1.3318    0.0000 C   0  0  0  0  0  0  0  0  0  0  0  0
   11.5738    8.7614    0.0000 C   0  0  0  0  0  0  0  0  0  0  0  0
   10.7648   10.1627    0.0000 C   0  0  0  0  0  0  0  0  0  0  0  0
   12.2429    9.5046    0.0000 C   0  0  0  0  0  0  0  0  0  0  0  0
   11.7429   10.3706    0.0000 C   0  0  0  0  0  0  0  0  0  0  0  0
    3.7320   -1.8318    0.0000 C   0  0  0  0  0  0  0  0  0  0  0  0
    5.4641   -1.8318    0.0000 C   0  0  0  0  0  0  0  0  0  0  0  0
    2.8660    4.6682    0.0000 C   0  0  0  0  0  0  0  0  0  0  0  0
    4.5981   -3.3318    0.0000 C   0  0  0  0  0  0  0  0  0  0  0  0
    3.7320   -2.8318    0.0000 C   0  0  0  0  0  0  0  0  0  0  0  0
    5.4641   -2.8318    0.0000 C   0  0  0  0  0  0  0  0  0  0  0  0
    4.5981   -4.3318    0.0000 C   0  0  0  0  0  0  0  0  0  0  0  0
    3.7320   -5.8318    0.0000 C   0  0  0  0  0  0  0  0  0  0  0  0
    2.8660   -7.3318    0.0000 C   0  0  0  0  0  0  0  0  0  0  0  0
    2.0000   -7.8318    0.0000 C   0  0  0  0  0  0  0  0  0  0  0  0
    3.7320   -7.8318    0.0000 C   0  0  0  0  0  0  0  0  0  0  0  0
    2.0000   -8.8318    0.0000 C   0  0  0  0  0  0  0  0  0  0  0  0
    3.7320   -8.8318    0.0000 C   0  0  0  0  0  0  0  0  0  0  0  0
    2.8660   -9.3318    0.0000 C   0  0  0  0  0  0  0  0  0  0  0  0
    6.6592    3.4782    0.0000 H   0  0  0  0  0  0  0  0  0  0  0  0
    8.0622    3.2882    0.0000 H   0  0  0  0  0  0  0  0  0  0  0  0
    5.4641    1.7882    0.0000 H   0  0  0  0  0  0  0  0  0  0  0  0
    3.9875    1.7758    0.0000 H   0  0  0  0  0  0  0  0  0  0  0  0
    4.3860    1.0856    0.0000 H   0  0  0  0  0  0  0  0  0  0  0  0
    6.6592    4.4782    0.0000 H   0  0  0  0  0  0  0  0  0  0  0  0
    6.8671    1.3582    0.0000 H   0  0  0  0  0  0  0  0  0  0  0  0
    9.2382    2.6312    0.0000 H   0  0  0  0  0  0  0  0  0  0  0  0
    9.4651    3.4782    0.0000 H   0  0  0  0  0  0  0  0  0  0  0  0
    8.6182    3.7051    0.0000 H   0  0  0  0  0  0  0  0  0  0  0  0
    7.4422    1.6682    0.0000 H   0  0  0  0  0  0  0  0  0  0  0  0
    8.0622    1.0482    0.0000 H   0  0  0  0  0  0  0  0  0  0  0  0
    8.6822    1.6682    0.0000 H   0  0  0  0  0  0  0  0  0  0  0  0
    9.1403    5.5856    0.0000 H   0  0  0  0  0  0  0  0  0  0  0  0
    9.5388    6.2758    0.0000 H   0  0  0  0  0  0  0  0  0  0  0  0
    7.8501    6.2508    0.0000 H   0  0  0  0  0  0  0  0  0  0  0  0
    7.4516    5.5605    0.0000 H   0  0  0  0  0  0  0  0  0  0  0  0
    5.2087    2.5605    0.0000 H   0  0  0  0  0  0  0  0  0  0  0  0
    4.8101    3.2508    0.0000 H   0  0  0  0  0  0  0  0  0  0  0  0
    8.7162    7.7508    0.0000 H   0  0  0  0  0  0  0  0  0  0  0  0
    8.3176    7.0605    0.0000 H   0  0  0  0  0  0  0  0  0  0  0  0
   10.0063    7.0856    0.0000 H   0  0  0  0  0  0  0  0  0  0  0  0
   10.4048    7.7758    0.0000 H   0  0  0  0  0  0  0  0  0  0  0  0
    9.5822    9.2508    0.0000 H   0  0  0  0  0  0  0  0  0  0  0  0
    9.1836    8.5605    0.0000 H   0  0  0  0  0  0  0  0  0  0  0  0
    3.1215    3.2758    0.0000 H   0  0  0  0  0  0  0  0  0  0  0  0
    3.5200    2.5856    0.0000 H   0  0  0  0  0  0  0  0  0  0  0  0
    4.0611   -0.0218    0.0000 H   0  0  0  0  0  0  0  0  0  0  0  0
    4.2690    4.4782    0.0000 H   0  0  0  0  0  0  0  0  0  0  0  0
   12.8595    9.4398    0.0000 H   0  0  0  0  0  0  0  0  0  0  0  0
   11.9951   10.9370    0.0000 H   0  0  0  0  0  0  0  0  0  0  0  0
    3.1951   -1.5218    0.0000 H   0  0  0  0  0  0  0  0  0  0  0  0
    6.0010   -1.5218    0.0000 H   0  0  0  0  0  0  0  0  0  0  0  0
    3.1951   -3.1418    0.0000 H   0  0  0  0  0  0  0  0  0  0  0  0
    6.0010   -3.1418    0.0000 H   0  0  0  0  0  0  0  0  0  0  0  0
    4.8101   -4.9144    0.0000 H   0  0  0  0  0  0  0  0  0  0  0  0
    5.2087   -4.2242    0.0000 H   0  0  0  0  0  0  0  0  0  0  0  0
    2.3291    5.9782    0.0000 H   0  0  0  0  0  0  0  0  0  0  0  0
    3.4030    5.9782    0.0000 H   0  0  0  0  0  0  0  0  0  0  0  0
    1.4631   -7.5218    0.0000 H   0  0  0  0  0  0  0  0  0  0  0  0
    4.2690   -7.5218    0.0000 H   0  0  0  0  0  0  0  0  0  0  0  0
    1.4631   -9.1418    0.0000 H   0  0  0  0  0  0  0  0  0  0  0  0
    4.2690   -9.1418    0.0000 H   0  0  0  0  0  0  0  0  0  0  0  0
  1 22  2  0  0  0  0
  2 30  2  0  0  0  0
  3 32  2  0  0  0  0
  4 36  2  0  0  0  0
  5 37  2  0  0  0  0
  6 42  2  0  0  0  0
  7 46  1  0  0  0  0
  7 47  1  0  0  0  0
  8 47  1  0  0  0  0
  8 48  1  0  0  0  0
  9 47  2  0  0  0  0
 10 18  1  0  0  0  0
 11 18  2  0  0  0  0
 12 19  1  0  0  0  0
 12 30  1  0  0  0  0
 12 59  1  0  0  0  0
 13 21  1  0  0  0  0
 13 22  1  0  0  0  0
 13 60  1  0  0  0  0
 14 33  1  0  0  0  0
 14 36  1  0  0  0  0
 14 37  1  0  0  0  0
 15 32  1  0  0  0  0
 15 35  1  0  0  0  0
 15 81  1  0  0  0  0
 16 34  1  0  0  0  0
 16 42  1  0  0  0  0
 16 82  1  0  0  0  0
 17 42  1  0  0  0  0
 17 91  1  0  0  0  0
 17 92  1  0  0  0  0
 18 53  1  0  0  0  0
 19 20  1  0  0  0  0
 19 22  1  0  0  0  0
 19 54  1  0  0  0  0
 20 24  1  0  0  0  0
 20 25  1  0  0  0  0
 20 55  1  0  0  0  0
 21 23  1  0  0  0  0
 21 32  1  0  0  0  0
 21 56  1  0  0  0  0
 23 28  1  0  0  0  0
 23 57  1  0  0  0  0
 23 58  1  0  0  0  0
 24 61  1  0  0  0  0
 24 62  1  0  0  0  0
 24 63  1  0  0  0  0
 25 64  1  0  0  0  0
 25 65  1  0  0  0  0
 25 66  1  0  0  0  0
 26 27  1  0  0  0  0
 26 29  1  0  0  0  0
 26 67  1  0  0  0  0
 26 68  1  0  0  0  0
 27 30  1  0  0  0  0
 27 69  1  0  0  0  0
 27 70  1  0  0  0  0
 28 34  1  0  0  0  0
 28 71  1  0  0  0  0
 28 72  1  0  0  0  0
 29 31  1  0  0  0  0
 29 73  1  0  0  0  0
 29 74  1  0  0  0  0
 31 33  1  0  0  0  0
 31 75  1  0  0  0  0
 31 76  1  0  0  0  0
 33 77  1  0  0  0  0
 33 78  1  0  0  0  0
 34 79  1  0  0  0  0
 34 80  1  0  0  0  0
 35 40  2  0  0  0  0
 35 41  1  0  0  0  0
 36 38  1  0  0  0  0
 37 39  1  0  0  0  0
 38 39  2  0  0  0  0
 38 83  1  0  0  0  0
 39 84  1  0  0  0  0
 40 44  1  0  0  0  0
 40 85  1  0  0  0  0
 41 45  2  0  0  0  0
 41 86  1  0  0  0  0
 43 44  2  0  0  0  0
 43 45  1  0  0  0  0
 43 46  1  0  0  0  0
 44 87  1  0  0  0  0
 45 88  1  0  0  0  0
 46 89  1  0  0  0  0
 46 90  1  0  0  0  0
 48 49  2  0  0  0  0
 48 50  1  0  0  0  0
 49 51  1  0  0  0  0
 49 93  1  0  0  0  0
 50 52  2  0  0  0  0
 50 94  1  0  0  0  0
 51 53  2  0  0  0  0
 51 95  1  0  0  0  0
 52 53  1  0  0  0  0
 52 96  1  0  0  0  0
M  CHG  2  10  -1  18   1
M  END
> <PUBCHEM_COMPOUND_CID>
20643479

> <PUBCHEM_COMPOUND_CANONICALIZED>
1

> <PUBCHEM_CACTVS_COMPLEXITY>
1320

> <PUBCHEM_CACTVS_HBOND_ACCEPTOR>
11

> <PUBCHEM_CACTVS_HBOND_DONOR>
5

> <PUBCHEM_CACTVS_ROTATABLE_BOND>
21

> <PUBCHEM_CACTVS_SUBSKEYS>
AAADcfB/vAAAAAAAAAAAAAAAAAAAAQAAAAAwYAAAAAAAAAABQAAAHgAUAAAADSzhmAYzzoPQRACJAiVSWwCCCAAhIgAoiIGObMqcZjLEsbu0Mihk1jPM6Ye42SMOCEAAAAAAAAAQgAAAAAAAAAAAAAAAAA==

> <PUBCHEM_IUPAC_OPENEYE_NAME>
[4-[[2-[[2-[6-(2,5-dioxopyrrol-1-yl)hexanoylamino]-3-methyl-butanoyl]amino]-5-ureido-pentanoyl]amino]phenyl]methyl (4-nitrophenyl) carbonate

> <PUBCHEM_IUPAC_CAS_NAME>
carbonic acid [4-[[5-(carbamoylamino)-2-[[2-[[6-(2,5-dioxo-1-pyrrolyl)-1-oxohexyl]amino]-3-methyl-1-oxobutyl]amino]-1-oxopentyl]amino]phenyl]methyl (4-nitrophenyl) ester

> <PUBCHEM_IUPAC_NAME_MARKUP>
[4-[[5-(carbamoylamino)-2-[[2-[6-(2,5-dioxopyrrol-1-yl)hexanoylamino]-3-methylbutanoyl]amino]pentanoyl]amino]phenyl]methyl (4-nitrophenyl) carbonate

> <PUBCHEM_IUPAC_NAME>
[4-[[5-(carbamoylamino)-2-[[2-[6-(2,5-dioxopyrrol-1-yl)hexanoylamino]-3-methylbutanoyl]amino]pentanoyl]amino]phenyl]methyl (4-nitrophenyl) carbonate

> <PUBCHEM_IUPAC_SYSTEMATIC_NAME>
[4-[[5-(aminocarbonylamino)-2-[[2-[6-[2,5-bis(oxidanylidene)pyrrol-1-yl]hexanoylamino]-3-methyl-butanoyl]amino]pentanoyl]amino]phenyl]methyl (4-nitrophenyl) carbonate

> <PUBCHEM_IUPAC_TRADITIONAL_NAME>
carbonic acid [4-[[2-[[2-(6-maleimidohexanoylamino)-3-methyl-butanoyl]amino]-5-ureido-pentanoyl]amino]benzyl] (4-nitrophenyl) ester

> <PUBCHEM_IUPAC_INCHI>
InChI=1S/C35H43N7O11/c1-22(2)31(40-28(43)8-4-3-5-20-41-29(44)17-18-30(41)45)33(47)39-27(7-6-19-37-34(36)48)32(46)38-24-11-9-23(10-12-24)21-52-35(49)53-26-15-13-25(14-16-26)42(50)51/h9-18,22,27,31H,3-8,19-21H2,1-2H3,(H,38,46)(H,39,47)(H,40,43)(H3,36,37,48)

> <PUBCHEM_IUPAC_INCHIKEY>
HYSPJPGXSALJRR-UHFFFAOYSA-N

> <PUBCHEM_XLOGP3_AA>
2.4

> <PUBCHEM_EXACT_MASS>
737.302055

> <PUBCHEM_MOLECULAR_FORMULA>
C35H43N7O11

> <PUBCHEM_MOLECULAR_WEIGHT>
737.8

> <PUBCHEM_OPENEYE_CAN_SMILES>
CC(C)C(C(=O)NC(CCCNC(=O)N)C(=O)NC1=CC=C(C=C1)COC(=O)OC2=CC=C(C=C2)[N+](=O)[O-])NC(=O)CCCCCN3C(=O)C=CC3=O

> <PUBCHEM_OPENEYE_ISO_SMILES>
CC(C)C(C(=O)NC(CCCNC(=O)N)C(=O)NC1=CC=C(C=C1)COC(=O)OC2=CC=C(C=C2)[N+](=O)[O-])NC(=O)CCCCCN3C(=O)C=CC3=O

> <PUBCHEM_CACTVS_TPSA>
261

> <PUBCHEM_MONOISOTOPIC_WEIGHT>
737.302055

> <PUBCHEM_TOTAL_CHARGE>
0

> <PUBCHEM_HEAVY_ATOM_COUNT>
53

> <PUBCHEM_ATOM_DEF_STEREO_COUNT>
0

> <PUBCHEM_ATOM_UDEF_STEREO_COUNT>
2

> <PUBCHEM_BOND_DEF_STEREO_COUNT>
0

> <PUBCHEM_BOND_UDEF_STEREO_COUNT>
0

> <PUBCHEM_ISOTOPIC_ATOM_COUNT>
0

> <PUBCHEM_COMPONENT_COUNT>
1

> <PUBCHEM_CACTVS_TAUTO_COUNT>
-1

> <PUBCHEM_COORDINATE_TYPE>
1
5
255

> <PUBCHEM_BONDANNOTATIONS>
19  20  3
21  23  3
35  40  8
35  41  8
40  44  8
41  45  8
43  44  8
43  45  8
48  49  8
48  50  8
49  51  8
50  52  8
51  53  8
52  53  8

$$$$
